* This file is generated using a Python script.
* DO NOT EDIT THIS FILE MANUALLY. Your changes will be lost.
.title 100x100 grid of 1ohm (realistic) resistors + decaps
*
.tran 1ps 150ns
.measure tran yavg AVG i(Vin) from=147ns to=149ns
.print i(Vin)
.plot i(Vin)
.plot i(Vp1)
.plot i(Vp2)
.plot i(Vp3)
*
* resistance segment model:
.subckt Rseg 1 3
R1 1 2 0.583
L1 2 3 0.003n
C1 1 0 0.25e-12
C2 3 0 0.25e-12
.ends
X1 1 2 Rseg
X2 2 3 Rseg
X3 3 4 Rseg
X4 4 5 Rseg
X5 5 6 Rseg
X6 6 7 Rseg
X7 7 8 Rseg
X8 8 9 Rseg
X9 9 10 Rseg
X10 10 11 Rseg
X11 11 12 Rseg
X12 12 13 Rseg
X13 13 14 Rseg
X14 14 15 Rseg
X15 15 16 Rseg
X16 16 17 Rseg
X17 17 18 Rseg
X18 18 19 Rseg
X19 19 20 Rseg
X20 20 21 Rseg
X21 21 22 Rseg
X22 22 23 Rseg
X23 23 24 Rseg
X24 24 25 Rseg
X25 25 26 Rseg
X26 26 27 Rseg
X27 27 28 Rseg
X28 28 29 Rseg
X29 29 30 Rseg
X30 30 31 Rseg
X31 31 32 Rseg
X32 32 33 Rseg
X33 33 34 Rseg
X34 34 35 Rseg
X35 35 36 Rseg
X36 36 37 Rseg
X37 37 38 Rseg
X38 38 39 Rseg
X39 39 40 Rseg
X40 40 41 Rseg
X41 41 42 Rseg
X42 42 43 Rseg
X43 43 44 Rseg
X44 44 45 Rseg
X45 45 46 Rseg
X46 46 47 Rseg
X47 47 48 Rseg
X48 48 49 Rseg
X49 49 50 Rseg
X50 50 51 Rseg
X51 51 52 Rseg
X52 52 53 Rseg
X53 53 54 Rseg
X54 54 55 Rseg
X55 55 56 Rseg
X56 56 57 Rseg
X57 57 58 Rseg
X58 58 59 Rseg
X59 59 60 Rseg
X60 60 61 Rseg
X61 61 62 Rseg
X62 62 63 Rseg
X63 63 64 Rseg
X64 64 65 Rseg
X65 65 66 Rseg
X66 66 67 Rseg
X67 67 68 Rseg
X68 68 69 Rseg
X69 69 70 Rseg
X70 70 71 Rseg
X71 71 72 Rseg
X72 72 73 Rseg
X73 73 74 Rseg
X74 74 75 Rseg
X75 75 76 Rseg
X76 76 77 Rseg
X77 77 78 Rseg
X78 78 79 Rseg
X79 79 80 Rseg
X80 80 81 Rseg
X81 81 82 Rseg
X82 82 83 Rseg
X83 83 84 Rseg
X84 84 85 Rseg
X85 85 86 Rseg
X86 86 87 Rseg
X87 87 88 Rseg
X88 88 89 Rseg
X89 89 90 Rseg
X90 90 91 Rseg
X91 91 92 Rseg
X92 92 93 Rseg
X93 93 94 Rseg
X94 94 95 Rseg
X95 95 96 Rseg
X96 96 97 Rseg
X97 97 98 Rseg
X98 98 99 Rseg
X99 99 100 Rseg
X100 100 101 Rseg
X101 102 103 Rseg
X102 103 104 Rseg
X103 104 105 Rseg
X104 105 106 Rseg
X105 106 107 Rseg
X106 107 108 Rseg
X107 108 109 Rseg
X108 109 110 Rseg
X109 110 111 Rseg
X110 111 112 Rseg
X111 112 113 Rseg
X112 113 114 Rseg
X113 114 115 Rseg
X114 115 116 Rseg
X115 116 117 Rseg
X116 117 118 Rseg
X117 118 119 Rseg
X118 119 120 Rseg
X119 120 121 Rseg
X120 121 122 Rseg
X121 122 123 Rseg
X122 123 124 Rseg
X123 124 125 Rseg
X124 125 126 Rseg
X125 126 127 Rseg
X126 127 128 Rseg
X127 128 129 Rseg
X128 129 130 Rseg
X129 130 131 Rseg
X130 131 132 Rseg
X131 132 133 Rseg
X132 133 134 Rseg
X133 134 135 Rseg
X134 135 136 Rseg
X135 136 137 Rseg
X136 137 138 Rseg
X137 138 139 Rseg
X138 139 140 Rseg
X139 140 141 Rseg
X140 141 142 Rseg
X141 142 143 Rseg
X142 143 144 Rseg
X143 144 145 Rseg
X144 145 146 Rseg
X145 146 147 Rseg
X146 147 148 Rseg
X147 148 149 Rseg
X148 149 150 Rseg
X149 150 151 Rseg
X150 151 152 Rseg
X151 152 153 Rseg
X152 153 154 Rseg
X153 154 155 Rseg
X154 155 156 Rseg
X155 156 157 Rseg
X156 157 158 Rseg
X157 158 159 Rseg
X158 159 160 Rseg
X159 160 161 Rseg
X160 161 162 Rseg
X161 162 163 Rseg
X162 163 164 Rseg
X163 164 165 Rseg
X164 165 166 Rseg
X165 166 167 Rseg
X166 167 168 Rseg
X167 168 169 Rseg
X168 169 170 Rseg
X169 170 171 Rseg
X170 171 172 Rseg
X171 172 173 Rseg
X172 173 174 Rseg
X173 174 175 Rseg
X174 175 176 Rseg
X175 176 177 Rseg
X176 177 178 Rseg
X177 178 179 Rseg
X178 179 180 Rseg
X179 180 181 Rseg
X180 181 182 Rseg
X181 182 183 Rseg
X182 183 184 Rseg
X183 184 185 Rseg
X184 185 186 Rseg
X185 186 187 Rseg
X186 187 188 Rseg
X187 188 189 Rseg
X188 189 190 Rseg
X189 190 191 Rseg
X190 191 192 Rseg
X191 192 193 Rseg
X192 193 194 Rseg
X193 194 195 Rseg
X194 195 196 Rseg
X195 196 197 Rseg
X196 197 198 Rseg
X197 198 199 Rseg
X198 199 200 Rseg
X199 200 201 Rseg
X200 201 202 Rseg
X201 203 204 Rseg
X202 204 205 Rseg
X203 205 206 Rseg
X204 206 207 Rseg
X205 207 208 Rseg
X206 208 209 Rseg
X207 209 210 Rseg
X208 210 211 Rseg
X209 211 212 Rseg
X210 212 213 Rseg
X211 213 214 Rseg
X212 214 215 Rseg
X213 215 216 Rseg
X214 216 217 Rseg
X215 217 218 Rseg
X216 218 219 Rseg
X217 219 220 Rseg
X218 220 221 Rseg
X219 221 222 Rseg
X220 222 223 Rseg
X221 223 224 Rseg
X222 224 225 Rseg
X223 225 226 Rseg
X224 226 227 Rseg
X225 227 228 Rseg
X226 228 229 Rseg
X227 229 230 Rseg
X228 230 231 Rseg
X229 231 232 Rseg
X230 232 233 Rseg
X231 233 234 Rseg
X232 234 235 Rseg
X233 235 236 Rseg
X234 236 237 Rseg
X235 237 238 Rseg
X236 238 239 Rseg
X237 239 240 Rseg
X238 240 241 Rseg
X239 241 242 Rseg
X240 242 243 Rseg
X241 243 244 Rseg
X242 244 245 Rseg
X243 245 246 Rseg
X244 246 247 Rseg
X245 247 248 Rseg
X246 248 249 Rseg
X247 249 250 Rseg
X248 250 251 Rseg
X249 251 252 Rseg
X250 252 253 Rseg
X251 253 254 Rseg
X252 254 255 Rseg
X253 255 256 Rseg
X254 256 257 Rseg
X255 257 258 Rseg
X256 258 259 Rseg
X257 259 260 Rseg
X258 260 261 Rseg
X259 261 262 Rseg
X260 262 263 Rseg
X261 263 264 Rseg
X262 264 265 Rseg
X263 265 266 Rseg
X264 266 267 Rseg
X265 267 268 Rseg
X266 268 269 Rseg
X267 269 270 Rseg
X268 270 271 Rseg
X269 271 272 Rseg
X270 272 273 Rseg
X271 273 274 Rseg
X272 274 275 Rseg
X273 275 276 Rseg
X274 276 277 Rseg
X275 277 278 Rseg
X276 278 279 Rseg
X277 279 280 Rseg
X278 280 281 Rseg
X279 281 282 Rseg
X280 282 283 Rseg
X281 283 284 Rseg
X282 284 285 Rseg
X283 285 286 Rseg
X284 286 287 Rseg
X285 287 288 Rseg
X286 288 289 Rseg
X287 289 290 Rseg
X288 290 291 Rseg
X289 291 292 Rseg
X290 292 293 Rseg
X291 293 294 Rseg
X292 294 295 Rseg
X293 295 296 Rseg
X294 296 297 Rseg
X295 297 298 Rseg
X296 298 299 Rseg
X297 299 300 Rseg
X298 300 301 Rseg
X299 301 302 Rseg
X300 302 303 Rseg
X301 304 305 Rseg
X302 305 306 Rseg
X303 306 307 Rseg
X304 307 308 Rseg
X305 308 309 Rseg
X306 309 310 Rseg
X307 310 311 Rseg
X308 311 312 Rseg
X309 312 313 Rseg
X310 313 314 Rseg
X311 314 315 Rseg
X312 315 316 Rseg
X313 316 317 Rseg
X314 317 318 Rseg
X315 318 319 Rseg
X316 319 320 Rseg
X317 320 321 Rseg
X318 321 322 Rseg
X319 322 323 Rseg
X320 323 324 Rseg
X321 324 325 Rseg
X322 325 326 Rseg
X323 326 327 Rseg
X324 327 328 Rseg
X325 328 329 Rseg
X326 329 330 Rseg
X327 330 331 Rseg
X328 331 332 Rseg
X329 332 333 Rseg
X330 333 334 Rseg
X331 334 335 Rseg
X332 335 336 Rseg
X333 336 337 Rseg
X334 337 338 Rseg
X335 338 339 Rseg
X336 339 340 Rseg
X337 340 341 Rseg
X338 341 342 Rseg
X339 342 343 Rseg
X340 343 344 Rseg
X341 344 345 Rseg
X342 345 346 Rseg
X343 346 347 Rseg
X344 347 348 Rseg
X345 348 349 Rseg
X346 349 350 Rseg
X347 350 351 Rseg
X348 351 352 Rseg
X349 352 353 Rseg
X350 353 354 Rseg
X351 354 355 Rseg
X352 355 356 Rseg
X353 356 357 Rseg
X354 357 358 Rseg
X355 358 359 Rseg
X356 359 360 Rseg
X357 360 361 Rseg
X358 361 362 Rseg
X359 362 363 Rseg
X360 363 364 Rseg
X361 364 365 Rseg
X362 365 366 Rseg
X363 366 367 Rseg
X364 367 368 Rseg
X365 368 369 Rseg
X366 369 370 Rseg
X367 370 371 Rseg
X368 371 372 Rseg
X369 372 373 Rseg
X370 373 374 Rseg
X371 374 375 Rseg
X372 375 376 Rseg
X373 376 377 Rseg
X374 377 378 Rseg
X375 378 379 Rseg
X376 379 380 Rseg
X377 380 381 Rseg
X378 381 382 Rseg
X379 382 383 Rseg
X380 383 384 Rseg
X381 384 385 Rseg
X382 385 386 Rseg
X383 386 387 Rseg
X384 387 388 Rseg
X385 388 389 Rseg
X386 389 390 Rseg
X387 390 391 Rseg
X388 391 392 Rseg
X389 392 393 Rseg
X390 393 394 Rseg
X391 394 395 Rseg
X392 395 396 Rseg
X393 396 397 Rseg
X394 397 398 Rseg
X395 398 399 Rseg
X396 399 400 Rseg
X397 400 401 Rseg
X398 401 402 Rseg
X399 402 403 Rseg
X400 403 404 Rseg
X401 405 406 Rseg
X402 406 407 Rseg
X403 407 408 Rseg
X404 408 409 Rseg
X405 409 410 Rseg
X406 410 411 Rseg
X407 411 412 Rseg
X408 412 413 Rseg
X409 413 414 Rseg
X410 414 415 Rseg
X411 415 416 Rseg
X412 416 417 Rseg
X413 417 418 Rseg
X414 418 419 Rseg
X415 419 420 Rseg
X416 420 421 Rseg
X417 421 422 Rseg
X418 422 423 Rseg
X419 423 424 Rseg
X420 424 425 Rseg
X421 425 426 Rseg
X422 426 427 Rseg
X423 427 428 Rseg
X424 428 429 Rseg
X425 429 430 Rseg
X426 430 431 Rseg
X427 431 432 Rseg
X428 432 433 Rseg
X429 433 434 Rseg
X430 434 435 Rseg
X431 435 436 Rseg
X432 436 437 Rseg
X433 437 438 Rseg
X434 438 439 Rseg
X435 439 440 Rseg
X436 440 441 Rseg
X437 441 442 Rseg
X438 442 443 Rseg
X439 443 444 Rseg
X440 444 445 Rseg
X441 445 446 Rseg
X442 446 447 Rseg
X443 447 448 Rseg
X444 448 449 Rseg
X445 449 450 Rseg
X446 450 451 Rseg
X447 451 452 Rseg
X448 452 453 Rseg
X449 453 454 Rseg
X450 454 455 Rseg
X451 455 456 Rseg
X452 456 457 Rseg
X453 457 458 Rseg
X454 458 459 Rseg
X455 459 460 Rseg
X456 460 461 Rseg
X457 461 462 Rseg
X458 462 463 Rseg
X459 463 464 Rseg
X460 464 465 Rseg
X461 465 466 Rseg
X462 466 467 Rseg
X463 467 468 Rseg
X464 468 469 Rseg
X465 469 470 Rseg
X466 470 471 Rseg
X467 471 472 Rseg
X468 472 473 Rseg
X469 473 474 Rseg
X470 474 475 Rseg
X471 475 476 Rseg
X472 476 477 Rseg
X473 477 478 Rseg
X474 478 479 Rseg
X475 479 480 Rseg
X476 480 481 Rseg
X477 481 482 Rseg
X478 482 483 Rseg
X479 483 484 Rseg
X480 484 485 Rseg
X481 485 486 Rseg
X482 486 487 Rseg
X483 487 488 Rseg
X484 488 489 Rseg
X485 489 490 Rseg
X486 490 491 Rseg
X487 491 492 Rseg
X488 492 493 Rseg
X489 493 494 Rseg
X490 494 495 Rseg
X491 495 496 Rseg
X492 496 497 Rseg
X493 497 498 Rseg
X494 498 499 Rseg
X495 499 500 Rseg
X496 500 501 Rseg
X497 501 502 Rseg
X498 502 503 Rseg
X499 503 504 Rseg
X500 504 505 Rseg
X501 506 507 Rseg
X502 507 508 Rseg
X503 508 509 Rseg
X504 509 510 Rseg
X505 510 511 Rseg
X506 511 512 Rseg
X507 512 513 Rseg
X508 513 514 Rseg
X509 514 515 Rseg
X510 515 516 Rseg
X511 516 517 Rseg
X512 517 518 Rseg
X513 518 519 Rseg
X514 519 520 Rseg
X515 520 521 Rseg
X516 521 522 Rseg
X517 522 523 Rseg
X518 523 524 Rseg
X519 524 525 Rseg
X520 525 526 Rseg
X521 526 527 Rseg
X522 527 528 Rseg
X523 528 529 Rseg
X524 529 530 Rseg
X525 530 531 Rseg
X526 531 532 Rseg
X527 532 533 Rseg
X528 533 534 Rseg
X529 534 535 Rseg
X530 535 536 Rseg
X531 536 537 Rseg
X532 537 538 Rseg
X533 538 539 Rseg
X534 539 540 Rseg
X535 540 541 Rseg
X536 541 542 Rseg
X537 542 543 Rseg
X538 543 544 Rseg
X539 544 545 Rseg
X540 545 546 Rseg
X541 546 547 Rseg
X542 547 548 Rseg
X543 548 549 Rseg
X544 549 550 Rseg
X545 550 551 Rseg
X546 551 552 Rseg
X547 552 553 Rseg
X548 553 554 Rseg
X549 554 555 Rseg
X550 555 556 Rseg
X551 556 557 Rseg
X552 557 558 Rseg
X553 558 559 Rseg
X554 559 560 Rseg
X555 560 561 Rseg
X556 561 562 Rseg
X557 562 563 Rseg
X558 563 564 Rseg
X559 564 565 Rseg
X560 565 566 Rseg
X561 566 567 Rseg
X562 567 568 Rseg
X563 568 569 Rseg
X564 569 570 Rseg
X565 570 571 Rseg
X566 571 572 Rseg
X567 572 573 Rseg
X568 573 574 Rseg
X569 574 575 Rseg
X570 575 576 Rseg
X571 576 577 Rseg
X572 577 578 Rseg
X573 578 579 Rseg
X574 579 580 Rseg
X575 580 581 Rseg
X576 581 582 Rseg
X577 582 583 Rseg
X578 583 584 Rseg
X579 584 585 Rseg
X580 585 586 Rseg
X581 586 587 Rseg
X582 587 588 Rseg
X583 588 589 Rseg
X584 589 590 Rseg
X585 590 591 Rseg
X586 591 592 Rseg
X587 592 593 Rseg
X588 593 594 Rseg
X589 594 595 Rseg
X590 595 596 Rseg
X591 596 597 Rseg
X592 597 598 Rseg
X593 598 599 Rseg
X594 599 600 Rseg
X595 600 601 Rseg
X596 601 602 Rseg
X597 602 603 Rseg
X598 603 604 Rseg
X599 604 605 Rseg
X600 605 606 Rseg
X601 607 608 Rseg
X602 608 609 Rseg
X603 609 610 Rseg
X604 610 611 Rseg
X605 611 612 Rseg
X606 612 613 Rseg
X607 613 614 Rseg
X608 614 615 Rseg
X609 615 616 Rseg
X610 616 617 Rseg
X611 617 618 Rseg
X612 618 619 Rseg
X613 619 620 Rseg
X614 620 621 Rseg
X615 621 622 Rseg
X616 622 623 Rseg
X617 623 624 Rseg
X618 624 625 Rseg
X619 625 626 Rseg
X620 626 627 Rseg
X621 627 628 Rseg
X622 628 629 Rseg
X623 629 630 Rseg
X624 630 631 Rseg
X625 631 632 Rseg
X626 632 633 Rseg
X627 633 634 Rseg
X628 634 635 Rseg
X629 635 636 Rseg
X630 636 637 Rseg
X631 637 638 Rseg
X632 638 639 Rseg
X633 639 640 Rseg
X634 640 641 Rseg
X635 641 642 Rseg
X636 642 643 Rseg
X637 643 644 Rseg
X638 644 645 Rseg
X639 645 646 Rseg
X640 646 647 Rseg
X641 647 648 Rseg
X642 648 649 Rseg
X643 649 650 Rseg
X644 650 651 Rseg
X645 651 652 Rseg
X646 652 653 Rseg
X647 653 654 Rseg
X648 654 655 Rseg
X649 655 656 Rseg
X650 656 657 Rseg
X651 657 658 Rseg
X652 658 659 Rseg
X653 659 660 Rseg
X654 660 661 Rseg
X655 661 662 Rseg
X656 662 663 Rseg
X657 663 664 Rseg
X658 664 665 Rseg
X659 665 666 Rseg
X660 666 667 Rseg
X661 667 668 Rseg
X662 668 669 Rseg
X663 669 670 Rseg
X664 670 671 Rseg
X665 671 672 Rseg
X666 672 673 Rseg
X667 673 674 Rseg
X668 674 675 Rseg
X669 675 676 Rseg
X670 676 677 Rseg
X671 677 678 Rseg
X672 678 679 Rseg
X673 679 680 Rseg
X674 680 681 Rseg
X675 681 682 Rseg
X676 682 683 Rseg
X677 683 684 Rseg
X678 684 685 Rseg
X679 685 686 Rseg
X680 686 687 Rseg
X681 687 688 Rseg
X682 688 689 Rseg
X683 689 690 Rseg
X684 690 691 Rseg
X685 691 692 Rseg
X686 692 693 Rseg
X687 693 694 Rseg
X688 694 695 Rseg
X689 695 696 Rseg
X690 696 697 Rseg
X691 697 698 Rseg
X692 698 699 Rseg
X693 699 700 Rseg
X694 700 701 Rseg
X695 701 702 Rseg
X696 702 703 Rseg
X697 703 704 Rseg
X698 704 705 Rseg
X699 705 706 Rseg
X700 706 707 Rseg
X701 708 709 Rseg
X702 709 710 Rseg
X703 710 711 Rseg
X704 711 712 Rseg
X705 712 713 Rseg
X706 713 714 Rseg
X707 714 715 Rseg
X708 715 716 Rseg
X709 716 717 Rseg
X710 717 718 Rseg
X711 718 719 Rseg
X712 719 720 Rseg
X713 720 721 Rseg
X714 721 722 Rseg
X715 722 723 Rseg
X716 723 724 Rseg
X717 724 725 Rseg
X718 725 726 Rseg
X719 726 727 Rseg
X720 727 728 Rseg
X721 728 729 Rseg
X722 729 730 Rseg
X723 730 731 Rseg
X724 731 732 Rseg
X725 732 733 Rseg
X726 733 734 Rseg
X727 734 735 Rseg
X728 735 736 Rseg
X729 736 737 Rseg
X730 737 738 Rseg
X731 738 739 Rseg
X732 739 740 Rseg
X733 740 741 Rseg
X734 741 742 Rseg
X735 742 743 Rseg
X736 743 744 Rseg
X737 744 745 Rseg
X738 745 746 Rseg
X739 746 747 Rseg
X740 747 748 Rseg
X741 748 749 Rseg
X742 749 750 Rseg
X743 750 751 Rseg
X744 751 752 Rseg
X745 752 753 Rseg
X746 753 754 Rseg
X747 754 755 Rseg
X748 755 756 Rseg
X749 756 757 Rseg
X750 757 758 Rseg
X751 758 759 Rseg
X752 759 760 Rseg
X753 760 761 Rseg
X754 761 762 Rseg
X755 762 763 Rseg
X756 763 764 Rseg
X757 764 765 Rseg
X758 765 766 Rseg
X759 766 767 Rseg
X760 767 768 Rseg
X761 768 769 Rseg
X762 769 770 Rseg
X763 770 771 Rseg
X764 771 772 Rseg
X765 772 773 Rseg
X766 773 774 Rseg
X767 774 775 Rseg
X768 775 776 Rseg
X769 776 777 Rseg
X770 777 778 Rseg
X771 778 779 Rseg
X772 779 780 Rseg
X773 780 781 Rseg
X774 781 782 Rseg
X775 782 783 Rseg
X776 783 784 Rseg
X777 784 785 Rseg
X778 785 786 Rseg
X779 786 787 Rseg
X780 787 788 Rseg
X781 788 789 Rseg
X782 789 790 Rseg
X783 790 791 Rseg
X784 791 792 Rseg
X785 792 793 Rseg
X786 793 794 Rseg
X787 794 795 Rseg
X788 795 796 Rseg
X789 796 797 Rseg
X790 797 798 Rseg
X791 798 799 Rseg
X792 799 800 Rseg
X793 800 801 Rseg
X794 801 802 Rseg
X795 802 803 Rseg
X796 803 804 Rseg
X797 804 805 Rseg
X798 805 806 Rseg
X799 806 807 Rseg
X800 807 808 Rseg
X801 809 810 Rseg
X802 810 811 Rseg
X803 811 812 Rseg
X804 812 813 Rseg
X805 813 814 Rseg
X806 814 815 Rseg
X807 815 816 Rseg
X808 816 817 Rseg
X809 817 818 Rseg
X810 818 819 Rseg
X811 819 820 Rseg
X812 820 821 Rseg
X813 821 822 Rseg
X814 822 823 Rseg
X815 823 824 Rseg
X816 824 825 Rseg
X817 825 826 Rseg
X818 826 827 Rseg
X819 827 828 Rseg
X820 828 829 Rseg
X821 829 830 Rseg
X822 830 831 Rseg
X823 831 832 Rseg
X824 832 833 Rseg
X825 833 834 Rseg
X826 834 835 Rseg
X827 835 836 Rseg
X828 836 837 Rseg
X829 837 838 Rseg
X830 838 839 Rseg
X831 839 840 Rseg
X832 840 841 Rseg
X833 841 842 Rseg
X834 842 843 Rseg
X835 843 844 Rseg
X836 844 845 Rseg
X837 845 846 Rseg
X838 846 847 Rseg
X839 847 848 Rseg
X840 848 849 Rseg
X841 849 850 Rseg
X842 850 851 Rseg
X843 851 852 Rseg
X844 852 853 Rseg
X845 853 854 Rseg
X846 854 855 Rseg
X847 855 856 Rseg
X848 856 857 Rseg
X849 857 858 Rseg
X850 858 859 Rseg
X851 859 860 Rseg
X852 860 861 Rseg
X853 861 862 Rseg
X854 862 863 Rseg
X855 863 864 Rseg
X856 864 865 Rseg
X857 865 866 Rseg
X858 866 867 Rseg
X859 867 868 Rseg
X860 868 869 Rseg
X861 869 870 Rseg
X862 870 871 Rseg
X863 871 872 Rseg
X864 872 873 Rseg
X865 873 874 Rseg
X866 874 875 Rseg
X867 875 876 Rseg
X868 876 877 Rseg
X869 877 878 Rseg
X870 878 879 Rseg
X871 879 880 Rseg
X872 880 881 Rseg
X873 881 882 Rseg
X874 882 883 Rseg
X875 883 884 Rseg
X876 884 885 Rseg
X877 885 886 Rseg
X878 886 887 Rseg
X879 887 888 Rseg
X880 888 889 Rseg
X881 889 890 Rseg
X882 890 891 Rseg
X883 891 892 Rseg
X884 892 893 Rseg
X885 893 894 Rseg
X886 894 895 Rseg
X887 895 896 Rseg
X888 896 897 Rseg
X889 897 898 Rseg
X890 898 899 Rseg
X891 899 900 Rseg
X892 900 901 Rseg
X893 901 902 Rseg
X894 902 903 Rseg
X895 903 904 Rseg
X896 904 905 Rseg
X897 905 906 Rseg
X898 906 907 Rseg
X899 907 908 Rseg
X900 908 909 Rseg
X901 910 911 Rseg
X902 911 912 Rseg
X903 912 913 Rseg
X904 913 914 Rseg
X905 914 915 Rseg
X906 915 916 Rseg
X907 916 917 Rseg
X908 917 918 Rseg
X909 918 919 Rseg
X910 919 920 Rseg
X911 920 921 Rseg
X912 921 922 Rseg
X913 922 923 Rseg
X914 923 924 Rseg
X915 924 925 Rseg
X916 925 926 Rseg
X917 926 927 Rseg
X918 927 928 Rseg
X919 928 929 Rseg
X920 929 930 Rseg
X921 930 931 Rseg
X922 931 932 Rseg
X923 932 933 Rseg
X924 933 934 Rseg
X925 934 935 Rseg
X926 935 936 Rseg
X927 936 937 Rseg
X928 937 938 Rseg
X929 938 939 Rseg
X930 939 940 Rseg
X931 940 941 Rseg
X932 941 942 Rseg
X933 942 943 Rseg
X934 943 944 Rseg
X935 944 945 Rseg
X936 945 946 Rseg
X937 946 947 Rseg
X938 947 948 Rseg
X939 948 949 Rseg
X940 949 950 Rseg
X941 950 951 Rseg
X942 951 952 Rseg
X943 952 953 Rseg
X944 953 954 Rseg
X945 954 955 Rseg
X946 955 956 Rseg
X947 956 957 Rseg
X948 957 958 Rseg
X949 958 959 Rseg
X950 959 960 Rseg
X951 960 961 Rseg
X952 961 962 Rseg
X953 962 963 Rseg
X954 963 964 Rseg
X955 964 965 Rseg
X956 965 966 Rseg
X957 966 967 Rseg
X958 967 968 Rseg
X959 968 969 Rseg
X960 969 970 Rseg
X961 970 971 Rseg
X962 971 972 Rseg
X963 972 973 Rseg
X964 973 974 Rseg
X965 974 975 Rseg
X966 975 976 Rseg
X967 976 977 Rseg
X968 977 978 Rseg
X969 978 979 Rseg
X970 979 980 Rseg
X971 980 981 Rseg
X972 981 982 Rseg
X973 982 983 Rseg
X974 983 984 Rseg
X975 984 985 Rseg
X976 985 986 Rseg
X977 986 987 Rseg
X978 987 988 Rseg
X979 988 989 Rseg
X980 989 990 Rseg
X981 990 991 Rseg
X982 991 992 Rseg
X983 992 993 Rseg
X984 993 994 Rseg
X985 994 995 Rseg
X986 995 996 Rseg
X987 996 997 Rseg
X988 997 998 Rseg
X989 998 999 Rseg
X990 999 1000 Rseg
X991 1000 1001 Rseg
X992 1001 1002 Rseg
X993 1002 1003 Rseg
X994 1003 1004 Rseg
X995 1004 1005 Rseg
X996 1005 1006 Rseg
X997 1006 1007 Rseg
X998 1007 1008 Rseg
X999 1008 1009 Rseg
X1000 1009 1010 Rseg
X1001 1011 1012 Rseg
X1002 1012 1013 Rseg
X1003 1013 1014 Rseg
X1004 1014 1015 Rseg
X1005 1015 1016 Rseg
X1006 1016 1017 Rseg
X1007 1017 1018 Rseg
X1008 1018 1019 Rseg
X1009 1019 1020 Rseg
X1010 1020 1021 Rseg
X1011 1021 1022 Rseg
X1012 1022 1023 Rseg
X1013 1023 1024 Rseg
X1014 1024 1025 Rseg
X1015 1025 1026 Rseg
X1016 1026 1027 Rseg
X1017 1027 1028 Rseg
X1018 1028 1029 Rseg
X1019 1029 1030 Rseg
X1020 1030 1031 Rseg
X1021 1031 1032 Rseg
X1022 1032 1033 Rseg
X1023 1033 1034 Rseg
X1024 1034 1035 Rseg
X1025 1035 1036 Rseg
X1026 1036 1037 Rseg
X1027 1037 1038 Rseg
X1028 1038 1039 Rseg
X1029 1039 1040 Rseg
X1030 1040 1041 Rseg
X1031 1041 1042 Rseg
X1032 1042 1043 Rseg
X1033 1043 1044 Rseg
X1034 1044 1045 Rseg
X1035 1045 1046 Rseg
X1036 1046 1047 Rseg
X1037 1047 1048 Rseg
X1038 1048 1049 Rseg
X1039 1049 1050 Rseg
X1040 1050 1051 Rseg
X1041 1051 1052 Rseg
X1042 1052 1053 Rseg
X1043 1053 1054 Rseg
X1044 1054 1055 Rseg
X1045 1055 1056 Rseg
X1046 1056 1057 Rseg
X1047 1057 1058 Rseg
X1048 1058 1059 Rseg
X1049 1059 1060 Rseg
X1050 1060 1061 Rseg
X1051 1061 1062 Rseg
X1052 1062 1063 Rseg
X1053 1063 1064 Rseg
X1054 1064 1065 Rseg
X1055 1065 1066 Rseg
X1056 1066 1067 Rseg
X1057 1067 1068 Rseg
X1058 1068 1069 Rseg
X1059 1069 1070 Rseg
X1060 1070 1071 Rseg
X1061 1071 1072 Rseg
X1062 1072 1073 Rseg
X1063 1073 1074 Rseg
X1064 1074 1075 Rseg
X1065 1075 1076 Rseg
X1066 1076 1077 Rseg
X1067 1077 1078 Rseg
X1068 1078 1079 Rseg
X1069 1079 1080 Rseg
X1070 1080 1081 Rseg
X1071 1081 1082 Rseg
X1072 1082 1083 Rseg
X1073 1083 1084 Rseg
X1074 1084 1085 Rseg
X1075 1085 1086 Rseg
X1076 1086 1087 Rseg
X1077 1087 1088 Rseg
X1078 1088 1089 Rseg
X1079 1089 1090 Rseg
X1080 1090 1091 Rseg
X1081 1091 1092 Rseg
X1082 1092 1093 Rseg
X1083 1093 1094 Rseg
X1084 1094 1095 Rseg
X1085 1095 1096 Rseg
X1086 1096 1097 Rseg
X1087 1097 1098 Rseg
X1088 1098 1099 Rseg
X1089 1099 1100 Rseg
X1090 1100 1101 Rseg
X1091 1101 1102 Rseg
X1092 1102 1103 Rseg
X1093 1103 1104 Rseg
X1094 1104 1105 Rseg
X1095 1105 1106 Rseg
X1096 1106 1107 Rseg
X1097 1107 1108 Rseg
X1098 1108 1109 Rseg
X1099 1109 1110 Rseg
X1100 1110 1111 Rseg
X1101 1112 1113 Rseg
X1102 1113 1114 Rseg
X1103 1114 1115 Rseg
X1104 1115 1116 Rseg
X1105 1116 1117 Rseg
X1106 1117 1118 Rseg
X1107 1118 1119 Rseg
X1108 1119 1120 Rseg
X1109 1120 1121 Rseg
X1110 1121 1122 Rseg
X1111 1122 1123 Rseg
X1112 1123 1124 Rseg
X1113 1124 1125 Rseg
X1114 1125 1126 Rseg
X1115 1126 1127 Rseg
X1116 1127 1128 Rseg
X1117 1128 1129 Rseg
X1118 1129 1130 Rseg
X1119 1130 1131 Rseg
X1120 1131 1132 Rseg
X1121 1132 1133 Rseg
X1122 1133 1134 Rseg
X1123 1134 1135 Rseg
X1124 1135 1136 Rseg
X1125 1136 1137 Rseg
X1126 1137 1138 Rseg
X1127 1138 1139 Rseg
X1128 1139 1140 Rseg
X1129 1140 1141 Rseg
X1130 1141 1142 Rseg
X1131 1142 1143 Rseg
X1132 1143 1144 Rseg
X1133 1144 1145 Rseg
X1134 1145 1146 Rseg
X1135 1146 1147 Rseg
X1136 1147 1148 Rseg
X1137 1148 1149 Rseg
X1138 1149 1150 Rseg
X1139 1150 1151 Rseg
X1140 1151 1152 Rseg
X1141 1152 1153 Rseg
X1142 1153 1154 Rseg
X1143 1154 1155 Rseg
X1144 1155 1156 Rseg
X1145 1156 1157 Rseg
X1146 1157 1158 Rseg
X1147 1158 1159 Rseg
X1148 1159 1160 Rseg
X1149 1160 1161 Rseg
X1150 1161 1162 Rseg
X1151 1162 1163 Rseg
X1152 1163 1164 Rseg
X1153 1164 1165 Rseg
X1154 1165 1166 Rseg
X1155 1166 1167 Rseg
X1156 1167 1168 Rseg
X1157 1168 1169 Rseg
X1158 1169 1170 Rseg
X1159 1170 1171 Rseg
X1160 1171 1172 Rseg
X1161 1172 1173 Rseg
X1162 1173 1174 Rseg
X1163 1174 1175 Rseg
X1164 1175 1176 Rseg
X1165 1176 1177 Rseg
X1166 1177 1178 Rseg
X1167 1178 1179 Rseg
X1168 1179 1180 Rseg
X1169 1180 1181 Rseg
X1170 1181 1182 Rseg
X1171 1182 1183 Rseg
X1172 1183 1184 Rseg
X1173 1184 1185 Rseg
X1174 1185 1186 Rseg
X1175 1186 1187 Rseg
X1176 1187 1188 Rseg
X1177 1188 1189 Rseg
X1178 1189 1190 Rseg
X1179 1190 1191 Rseg
X1180 1191 1192 Rseg
X1181 1192 1193 Rseg
X1182 1193 1194 Rseg
X1183 1194 1195 Rseg
X1184 1195 1196 Rseg
X1185 1196 1197 Rseg
X1186 1197 1198 Rseg
X1187 1198 1199 Rseg
X1188 1199 1200 Rseg
X1189 1200 1201 Rseg
X1190 1201 1202 Rseg
X1191 1202 1203 Rseg
X1192 1203 1204 Rseg
X1193 1204 1205 Rseg
X1194 1205 1206 Rseg
X1195 1206 1207 Rseg
X1196 1207 1208 Rseg
X1197 1208 1209 Rseg
X1198 1209 1210 Rseg
X1199 1210 1211 Rseg
X1200 1211 1212 Rseg
X1201 1213 1214 Rseg
X1202 1214 1215 Rseg
X1203 1215 1216 Rseg
X1204 1216 1217 Rseg
X1205 1217 1218 Rseg
X1206 1218 1219 Rseg
X1207 1219 1220 Rseg
X1208 1220 1221 Rseg
X1209 1221 1222 Rseg
X1210 1222 1223 Rseg
X1211 1223 1224 Rseg
X1212 1224 1225 Rseg
X1213 1225 1226 Rseg
X1214 1226 1227 Rseg
X1215 1227 1228 Rseg
X1216 1228 1229 Rseg
X1217 1229 1230 Rseg
X1218 1230 1231 Rseg
X1219 1231 1232 Rseg
X1220 1232 1233 Rseg
X1221 1233 1234 Rseg
X1222 1234 1235 Rseg
X1223 1235 1236 Rseg
X1224 1236 1237 Rseg
X1225 1237 1238 Rseg
X1226 1238 1239 Rseg
X1227 1239 1240 Rseg
X1228 1240 1241 Rseg
X1229 1241 1242 Rseg
X1230 1242 1243 Rseg
X1231 1243 1244 Rseg
X1232 1244 1245 Rseg
X1233 1245 1246 Rseg
X1234 1246 1247 Rseg
X1235 1247 1248 Rseg
X1236 1248 1249 Rseg
X1237 1249 1250 Rseg
X1238 1250 1251 Rseg
X1239 1251 1252 Rseg
X1240 1252 1253 Rseg
X1241 1253 1254 Rseg
X1242 1254 1255 Rseg
X1243 1255 1256 Rseg
X1244 1256 1257 Rseg
X1245 1257 1258 Rseg
X1246 1258 1259 Rseg
X1247 1259 1260 Rseg
X1248 1260 1261 Rseg
X1249 1261 1262 Rseg
X1250 1262 1263 Rseg
X1251 1263 1264 Rseg
X1252 1264 1265 Rseg
X1253 1265 1266 Rseg
X1254 1266 1267 Rseg
X1255 1267 1268 Rseg
X1256 1268 1269 Rseg
X1257 1269 1270 Rseg
X1258 1270 1271 Rseg
X1259 1271 1272 Rseg
X1260 1272 1273 Rseg
X1261 1273 1274 Rseg
X1262 1274 1275 Rseg
X1263 1275 1276 Rseg
X1264 1276 1277 Rseg
X1265 1277 1278 Rseg
X1266 1278 1279 Rseg
X1267 1279 1280 Rseg
X1268 1280 1281 Rseg
X1269 1281 1282 Rseg
X1270 1282 1283 Rseg
X1271 1283 1284 Rseg
X1272 1284 1285 Rseg
X1273 1285 1286 Rseg
X1274 1286 1287 Rseg
X1275 1287 1288 Rseg
X1276 1288 1289 Rseg
X1277 1289 1290 Rseg
X1278 1290 1291 Rseg
X1279 1291 1292 Rseg
X1280 1292 1293 Rseg
X1281 1293 1294 Rseg
X1282 1294 1295 Rseg
X1283 1295 1296 Rseg
X1284 1296 1297 Rseg
X1285 1297 1298 Rseg
X1286 1298 1299 Rseg
X1287 1299 1300 Rseg
X1288 1300 1301 Rseg
X1289 1301 1302 Rseg
X1290 1302 1303 Rseg
X1291 1303 1304 Rseg
X1292 1304 1305 Rseg
X1293 1305 1306 Rseg
X1294 1306 1307 Rseg
X1295 1307 1308 Rseg
X1296 1308 1309 Rseg
X1297 1309 1310 Rseg
X1298 1310 1311 Rseg
X1299 1311 1312 Rseg
X1300 1312 1313 Rseg
X1301 1314 1315 Rseg
X1302 1315 1316 Rseg
X1303 1316 1317 Rseg
X1304 1317 1318 Rseg
X1305 1318 1319 Rseg
X1306 1319 1320 Rseg
X1307 1320 1321 Rseg
X1308 1321 1322 Rseg
X1309 1322 1323 Rseg
X1310 1323 1324 Rseg
X1311 1324 1325 Rseg
X1312 1325 1326 Rseg
X1313 1326 1327 Rseg
X1314 1327 1328 Rseg
X1315 1328 1329 Rseg
X1316 1329 1330 Rseg
X1317 1330 1331 Rseg
X1318 1331 1332 Rseg
X1319 1332 1333 Rseg
X1320 1333 1334 Rseg
X1321 1334 1335 Rseg
X1322 1335 1336 Rseg
X1323 1336 1337 Rseg
X1324 1337 1338 Rseg
X1325 1338 1339 Rseg
X1326 1339 1340 Rseg
X1327 1340 1341 Rseg
X1328 1341 1342 Rseg
X1329 1342 1343 Rseg
X1330 1343 1344 Rseg
X1331 1344 1345 Rseg
X1332 1345 1346 Rseg
X1333 1346 1347 Rseg
X1334 1347 1348 Rseg
X1335 1348 1349 Rseg
X1336 1349 1350 Rseg
X1337 1350 1351 Rseg
X1338 1351 1352 Rseg
X1339 1352 1353 Rseg
X1340 1353 1354 Rseg
X1341 1354 1355 Rseg
X1342 1355 1356 Rseg
X1343 1356 1357 Rseg
X1344 1357 1358 Rseg
X1345 1358 1359 Rseg
X1346 1359 1360 Rseg
X1347 1360 1361 Rseg
X1348 1361 1362 Rseg
X1349 1362 1363 Rseg
X1350 1363 1364 Rseg
X1351 1364 1365 Rseg
X1352 1365 1366 Rseg
X1353 1366 1367 Rseg
X1354 1367 1368 Rseg
X1355 1368 1369 Rseg
X1356 1369 1370 Rseg
X1357 1370 1371 Rseg
X1358 1371 1372 Rseg
X1359 1372 1373 Rseg
X1360 1373 1374 Rseg
X1361 1374 1375 Rseg
X1362 1375 1376 Rseg
X1363 1376 1377 Rseg
X1364 1377 1378 Rseg
X1365 1378 1379 Rseg
X1366 1379 1380 Rseg
X1367 1380 1381 Rseg
X1368 1381 1382 Rseg
X1369 1382 1383 Rseg
X1370 1383 1384 Rseg
X1371 1384 1385 Rseg
X1372 1385 1386 Rseg
X1373 1386 1387 Rseg
X1374 1387 1388 Rseg
X1375 1388 1389 Rseg
X1376 1389 1390 Rseg
X1377 1390 1391 Rseg
X1378 1391 1392 Rseg
X1379 1392 1393 Rseg
X1380 1393 1394 Rseg
X1381 1394 1395 Rseg
X1382 1395 1396 Rseg
X1383 1396 1397 Rseg
X1384 1397 1398 Rseg
X1385 1398 1399 Rseg
X1386 1399 1400 Rseg
X1387 1400 1401 Rseg
X1388 1401 1402 Rseg
X1389 1402 1403 Rseg
X1390 1403 1404 Rseg
X1391 1404 1405 Rseg
X1392 1405 1406 Rseg
X1393 1406 1407 Rseg
X1394 1407 1408 Rseg
X1395 1408 1409 Rseg
X1396 1409 1410 Rseg
X1397 1410 1411 Rseg
X1398 1411 1412 Rseg
X1399 1412 1413 Rseg
X1400 1413 1414 Rseg
X1401 1415 1416 Rseg
X1402 1416 1417 Rseg
X1403 1417 1418 Rseg
X1404 1418 1419 Rseg
X1405 1419 1420 Rseg
X1406 1420 1421 Rseg
X1407 1421 1422 Rseg
X1408 1422 1423 Rseg
X1409 1423 1424 Rseg
X1410 1424 1425 Rseg
X1411 1425 1426 Rseg
X1412 1426 1427 Rseg
X1413 1427 1428 Rseg
X1414 1428 1429 Rseg
X1415 1429 1430 Rseg
X1416 1430 1431 Rseg
X1417 1431 1432 Rseg
X1418 1432 1433 Rseg
X1419 1433 1434 Rseg
X1420 1434 1435 Rseg
X1421 1435 1436 Rseg
X1422 1436 1437 Rseg
X1423 1437 1438 Rseg
X1424 1438 1439 Rseg
X1425 1439 1440 Rseg
X1426 1440 1441 Rseg
X1427 1441 1442 Rseg
X1428 1442 1443 Rseg
X1429 1443 1444 Rseg
X1430 1444 1445 Rseg
X1431 1445 1446 Rseg
X1432 1446 1447 Rseg
X1433 1447 1448 Rseg
X1434 1448 1449 Rseg
X1435 1449 1450 Rseg
X1436 1450 1451 Rseg
X1437 1451 1452 Rseg
X1438 1452 1453 Rseg
X1439 1453 1454 Rseg
X1440 1454 1455 Rseg
X1441 1455 1456 Rseg
X1442 1456 1457 Rseg
X1443 1457 1458 Rseg
X1444 1458 1459 Rseg
X1445 1459 1460 Rseg
X1446 1460 1461 Rseg
X1447 1461 1462 Rseg
X1448 1462 1463 Rseg
X1449 1463 1464 Rseg
X1450 1464 1465 Rseg
X1451 1465 1466 Rseg
X1452 1466 1467 Rseg
X1453 1467 1468 Rseg
X1454 1468 1469 Rseg
X1455 1469 1470 Rseg
X1456 1470 1471 Rseg
X1457 1471 1472 Rseg
X1458 1472 1473 Rseg
X1459 1473 1474 Rseg
X1460 1474 1475 Rseg
X1461 1475 1476 Rseg
X1462 1476 1477 Rseg
X1463 1477 1478 Rseg
X1464 1478 1479 Rseg
X1465 1479 1480 Rseg
X1466 1480 1481 Rseg
X1467 1481 1482 Rseg
X1468 1482 1483 Rseg
X1469 1483 1484 Rseg
X1470 1484 1485 Rseg
X1471 1485 1486 Rseg
X1472 1486 1487 Rseg
X1473 1487 1488 Rseg
X1474 1488 1489 Rseg
X1475 1489 1490 Rseg
X1476 1490 1491 Rseg
X1477 1491 1492 Rseg
X1478 1492 1493 Rseg
X1479 1493 1494 Rseg
X1480 1494 1495 Rseg
X1481 1495 1496 Rseg
X1482 1496 1497 Rseg
X1483 1497 1498 Rseg
X1484 1498 1499 Rseg
X1485 1499 1500 Rseg
X1486 1500 1501 Rseg
X1487 1501 1502 Rseg
X1488 1502 1503 Rseg
X1489 1503 1504 Rseg
X1490 1504 1505 Rseg
X1491 1505 1506 Rseg
X1492 1506 1507 Rseg
X1493 1507 1508 Rseg
X1494 1508 1509 Rseg
X1495 1509 1510 Rseg
X1496 1510 1511 Rseg
X1497 1511 1512 Rseg
X1498 1512 1513 Rseg
X1499 1513 1514 Rseg
X1500 1514 1515 Rseg
X1501 1516 1517 Rseg
X1502 1517 1518 Rseg
X1503 1518 1519 Rseg
X1504 1519 1520 Rseg
X1505 1520 1521 Rseg
X1506 1521 1522 Rseg
X1507 1522 1523 Rseg
X1508 1523 1524 Rseg
X1509 1524 1525 Rseg
X1510 1525 1526 Rseg
X1511 1526 1527 Rseg
X1512 1527 1528 Rseg
X1513 1528 1529 Rseg
X1514 1529 1530 Rseg
X1515 1530 1531 Rseg
X1516 1531 1532 Rseg
X1517 1532 1533 Rseg
X1518 1533 1534 Rseg
X1519 1534 1535 Rseg
X1520 1535 1536 Rseg
X1521 1536 1537 Rseg
X1522 1537 1538 Rseg
X1523 1538 1539 Rseg
X1524 1539 1540 Rseg
X1525 1540 1541 Rseg
X1526 1541 1542 Rseg
X1527 1542 1543 Rseg
X1528 1543 1544 Rseg
X1529 1544 1545 Rseg
X1530 1545 1546 Rseg
X1531 1546 1547 Rseg
X1532 1547 1548 Rseg
X1533 1548 1549 Rseg
X1534 1549 1550 Rseg
X1535 1550 1551 Rseg
X1536 1551 1552 Rseg
X1537 1552 1553 Rseg
X1538 1553 1554 Rseg
X1539 1554 1555 Rseg
X1540 1555 1556 Rseg
X1541 1556 1557 Rseg
X1542 1557 1558 Rseg
X1543 1558 1559 Rseg
X1544 1559 1560 Rseg
X1545 1560 1561 Rseg
X1546 1561 1562 Rseg
X1547 1562 1563 Rseg
X1548 1563 1564 Rseg
X1549 1564 1565 Rseg
X1550 1565 1566 Rseg
X1551 1566 1567 Rseg
X1552 1567 1568 Rseg
X1553 1568 1569 Rseg
X1554 1569 1570 Rseg
X1555 1570 1571 Rseg
X1556 1571 1572 Rseg
X1557 1572 1573 Rseg
X1558 1573 1574 Rseg
X1559 1574 1575 Rseg
X1560 1575 1576 Rseg
X1561 1576 1577 Rseg
X1562 1577 1578 Rseg
X1563 1578 1579 Rseg
X1564 1579 1580 Rseg
X1565 1580 1581 Rseg
X1566 1581 1582 Rseg