.title 1-layer Power Grid for b04.points
* resistance segment model:
.subckt Rseg 1 3
R1 1 2 0.583
L1 2 3 0.003n
C1 1 0 0.25e-12
C2 3 0 0.25e-12
.ends
* the horizontal resistors:
X1 n_40280_40040 n_40660_40040 Rseg
X2 n_40660_40040 n_41420_40040 Rseg
X3 n_41420_40040 n_41800_40040 Rseg
X4 n_41800_40040 n_42180_40040 Rseg
X5 n_42180_40040 n_42940_40040 Rseg
X6 n_42940_40040 n_43320_40040 Rseg
X7 n_43320_40040 n_43700_40040 Rseg
X8 n_43700_40040 n_44080_40040 Rseg
X9 n_44080_40040 n_44460_40040 Rseg
X10 n_44460_40040 n_44840_40040 Rseg
X11 n_44840_40040 n_45220_40040 Rseg
X12 n_45220_40040 n_45600_40040 Rseg
X13 n_45600_40040 n_46360_40040 Rseg
X14 n_46360_40040 n_46740_40040 Rseg
X15 n_46740_40040 n_47120_40040 Rseg
X16 n_47120_40040 n_47500_40040 Rseg
X17 n_47500_40040 n_47880_40040 Rseg
X18 n_47880_40040 n_48260_40040 Rseg
X19 n_48260_40040 n_48640_40040 Rseg
X20 n_48640_40040 n_49020_40040 Rseg
X21 n_49020_40040 n_49400_40040 Rseg
X22 n_49400_40040 n_49780_40040 Rseg
X23 n_49780_40040 n_50160_40040 Rseg
X24 n_50160_40040 n_50540_40040 Rseg
X25 n_50540_40040 n_50920_40040 Rseg
X26 n_50920_40040 n_51300_40040 Rseg
X27 n_51300_40040 n_51680_40040 Rseg
X28 n_51680_40040 n_52060_40040 Rseg
X29 n_52060_40040 n_52440_40040 Rseg
X30 n_52440_40040 n_52820_40040 Rseg
X31 n_52820_40040 n_53200_40040 Rseg
X32 n_53200_40040 n_53580_40040 Rseg
X33 n_53580_40040 n_53960_40040 Rseg
X34 n_53960_40040 n_54340_40040 Rseg
X35 n_54340_40040 n_54720_40040 Rseg
X36 n_54720_40040 n_55100_40040 Rseg
X37 n_55100_40040 n_55480_40040 Rseg
X38 n_55480_40040 n_55860_40040 Rseg
X39 n_55860_40040 n_56240_40040 Rseg
X40 n_56240_40040 n_56620_40040 Rseg
X41 n_56620_40040 n_57000_40040 Rseg
X42 n_57000_40040 n_57380_40040 Rseg
X43 n_57380_40040 n_57760_40040 Rseg
X44 n_57760_40040 n_58140_40040 Rseg
X45 n_58140_40040 n_58520_40040 Rseg
X46 n_58520_40040 n_58900_40040 Rseg
X47 n_58900_40040 n_59280_40040 Rseg
X48 n_59280_40040 n_59660_40040 Rseg
X49 n_59660_40040 n_60040_40040 Rseg
X50 n_60040_40040 n_60420_40040 Rseg
X51 n_60420_40040 n_60800_40040 Rseg
X52 n_60800_40040 n_61180_40040 Rseg
X53 n_61180_40040 n_61560_40040 Rseg
X54 n_61560_40040 n_61940_40040 Rseg
X55 n_61940_40040 n_62320_40040 Rseg
X56 n_62320_40040 n_63080_40040 Rseg
X57 n_63080_40040 n_63460_40040 Rseg
X58 n_63460_40040 n_63840_40040 Rseg
X59 n_63840_40040 n_64220_40040 Rseg
X60 n_64220_40040 n_64600_40040 Rseg
X61 n_64600_40040 n_64980_40040 Rseg
X62 n_64980_40040 n_65360_40040 Rseg
X63 n_65360_40040 n_65740_40040 Rseg
X64 n_65740_40040 n_66120_40040 Rseg
X65 n_66120_40040 n_66880_40040 Rseg
X66 n_66880_40040 n_67260_40040 Rseg
X67 n_67260_40040 n_68020_40040 Rseg
X68 n_68020_40040 n_68400_40040 Rseg
X69 n_68400_40040 n_68780_40040 Rseg
X70 n_68780_40040 n_69160_40040 Rseg
X71 n_69160_40040 n_69920_40040 Rseg
X72 n_69920_40040 n_70300_40040 Rseg
X73 n_70300_40040 n_71060_40040 Rseg
X74 n_71060_40040 n_71820_40040 Rseg
X75 n_71820_40040 n_72200_40040 Rseg
X76 n_72200_40040 n_72960_40040 Rseg
X77 n_72960_40040 n_73340_40040 Rseg
X78 n_73340_40040 n_73720_40040 Rseg
X79 n_73720_40040 n_74100_40040 Rseg
X80 n_74100_40040 n_74860_40040 Rseg
X81 n_74860_40040 n_75240_40040 Rseg
X82 n_75240_40040 n_76000_40040 Rseg
X83 n_76000_40040 n_76380_40040 Rseg
X84 n_76380_40040 n_76760_40040 Rseg
X85 n_76760_40040 n_77140_40040 Rseg
X86 n_77140_40040 n_77520_40040 Rseg
X87 n_77520_40040 n_77900_40040 Rseg
X88 n_77900_40040 n_78280_40040 Rseg
X89 n_78280_40040 n_78660_40040 Rseg
X90 n_78660_40040 n_79040_40040 Rseg
X91 n_79040_40040 n_80180_40040 Rseg
X92 n_80180_40040 n_80560_40040 Rseg
X93 n_80560_40040 n_80940_40040 Rseg
X94 n_80940_40040 n_81700_40040 Rseg
X95 n_81700_40040 n_82080_40040 Rseg
X96 n_82080_40040 n_83220_40040 Rseg
X97 n_83220_40040 n_83600_40040 Rseg
X98 n_83600_40040 n_84740_40040 Rseg
X99 n_84740_40040 n_85120_40040 Rseg
X100 n_85120_40040 n_85500_40040 Rseg
X101 n_85500_40040 n_85880_40040 Rseg
X102 n_85880_40040 n_86260_40040 Rseg
X103 n_86260_40040 n_87020_40040 Rseg
X104 n_87020_40040 n_87400_40040 Rseg
X105 n_87400_40040 n_87780_40040 Rseg
X106 n_87780_40040 n_88160_40040 Rseg
X107 n_88160_40040 n_88540_40040 Rseg
X108 n_88540_40040 n_88920_40040 Rseg
X109 n_88920_40040 n_89300_40040 Rseg
X110 n_89300_40040 n_90060_40040 Rseg
X111 n_90060_40040 n_90440_40040 Rseg
X112 n_90440_40040 n_90820_40040 Rseg
X113 n_90820_40040 n_91200_40040 Rseg
X114 n_91200_40040 n_91580_40040 Rseg
X115 n_91580_40040 n_91960_40040 Rseg
X116 n_91960_40040 n_92340_40040 Rseg
X117 n_92340_40040 n_92720_40040 Rseg
X118 n_92720_40040 n_93100_40040 Rseg
X119 n_93100_40040 n_93480_40040 Rseg
X120 n_40280_42840 n_40660_42840 Rseg
X121 n_40660_42840 n_41420_42840 Rseg
X122 n_41420_42840 n_41800_42840 Rseg
X123 n_41800_42840 n_42180_42840 Rseg
X124 n_42180_42840 n_42940_42840 Rseg
X125 n_42940_42840 n_43320_42840 Rseg
X126 n_43320_42840 n_43700_42840 Rseg
X127 n_43700_42840 n_44080_42840 Rseg
X128 n_44080_42840 n_44460_42840 Rseg
X129 n_44460_42840 n_44840_42840 Rseg
X130 n_44840_42840 n_45220_42840 Rseg
X131 n_45220_42840 n_45600_42840 Rseg
X132 n_45600_42840 n_46360_42840 Rseg
X133 n_46360_42840 n_46740_42840 Rseg
X134 n_46740_42840 n_47120_42840 Rseg
X135 n_47120_42840 n_47500_42840 Rseg
X136 n_47500_42840 n_47880_42840 Rseg
X137 n_47880_42840 n_48260_42840 Rseg
X138 n_48260_42840 n_48640_42840 Rseg
X139 n_48640_42840 n_49020_42840 Rseg
X140 n_49020_42840 n_49400_42840 Rseg
X141 n_49400_42840 n_49780_42840 Rseg
X142 n_49780_42840 n_50160_42840 Rseg
X143 n_50160_42840 n_50540_42840 Rseg
X144 n_50540_42840 n_50920_42840 Rseg
X145 n_50920_42840 n_51300_42840 Rseg
X146 n_51300_42840 n_51680_42840 Rseg
X147 n_51680_42840 n_52060_42840 Rseg
X148 n_52060_42840 n_52440_42840 Rseg
X149 n_52440_42840 n_52820_42840 Rseg
X150 n_52820_42840 n_53200_42840 Rseg
X151 n_53200_42840 n_53580_42840 Rseg
X152 n_53580_42840 n_53960_42840 Rseg
X153 n_53960_42840 n_54340_42840 Rseg
X154 n_54340_42840 n_54720_42840 Rseg
X155 n_54720_42840 n_55100_42840 Rseg
X156 n_55100_42840 n_55480_42840 Rseg
X157 n_55480_42840 n_55860_42840 Rseg
X158 n_55860_42840 n_56240_42840 Rseg
X159 n_56240_42840 n_56620_42840 Rseg
X160 n_56620_42840 n_57000_42840 Rseg
X161 n_57000_42840 n_57380_42840 Rseg
X162 n_57380_42840 n_57760_42840 Rseg
X163 n_57760_42840 n_58140_42840 Rseg
X164 n_58140_42840 n_58520_42840 Rseg
X165 n_58520_42840 n_58900_42840 Rseg
X166 n_58900_42840 n_59280_42840 Rseg
X167 n_59280_42840 n_59660_42840 Rseg
X168 n_59660_42840 n_60040_42840 Rseg
X169 n_60040_42840 n_60420_42840 Rseg
X170 n_60420_42840 n_60800_42840 Rseg
X171 n_60800_42840 n_61180_42840 Rseg
X172 n_61180_42840 n_61560_42840 Rseg
X173 n_61560_42840 n_61940_42840 Rseg
X174 n_61940_42840 n_62320_42840 Rseg
X175 n_62320_42840 n_63080_42840 Rseg
X176 n_63080_42840 n_63460_42840 Rseg
X177 n_63460_42840 n_63840_42840 Rseg
X178 n_63840_42840 n_64220_42840 Rseg
X179 n_64220_42840 n_64600_42840 Rseg
X180 n_64600_42840 n_64980_42840 Rseg
X181 n_64980_42840 n_65360_42840 Rseg
X182 n_65360_42840 n_65740_42840 Rseg
X183 n_65740_42840 n_66120_42840 Rseg
X184 n_66120_42840 n_66880_42840 Rseg
X185 n_66880_42840 n_67260_42840 Rseg
X186 n_67260_42840 n_68020_42840 Rseg
X187 n_68020_42840 n_68400_42840 Rseg
X188 n_68400_42840 n_68780_42840 Rseg
X189 n_68780_42840 n_69160_42840 Rseg
X190 n_69160_42840 n_69920_42840 Rseg
X191 n_69920_42840 n_70300_42840 Rseg
X192 n_70300_42840 n_71060_42840 Rseg
X193 n_71060_42840 n_71820_42840 Rseg
X194 n_71820_42840 n_72200_42840 Rseg
X195 n_72200_42840 n_72960_42840 Rseg
X196 n_72960_42840 n_73340_42840 Rseg
X197 n_73340_42840 n_73720_42840 Rseg
X198 n_73720_42840 n_74100_42840 Rseg
X199 n_74100_42840 n_74860_42840 Rseg
X200 n_74860_42840 n_75240_42840 Rseg
X201 n_75240_42840 n_76000_42840 Rseg
X202 n_76000_42840 n_76380_42840 Rseg
X203 n_76380_42840 n_76760_42840 Rseg
X204 n_76760_42840 n_77140_42840 Rseg
X205 n_77140_42840 n_77520_42840 Rseg
X206 n_77520_42840 n_77900_42840 Rseg
X207 n_77900_42840 n_78280_42840 Rseg
X208 n_78280_42840 n_78660_42840 Rseg
X209 n_78660_42840 n_79040_42840 Rseg
X210 n_79040_42840 n_80180_42840 Rseg
X211 n_80180_42840 n_80560_42840 Rseg
X212 n_80560_42840 n_80940_42840 Rseg
X213 n_80940_42840 n_81700_42840 Rseg
X214 n_81700_42840 n_82080_42840 Rseg
X215 n_82080_42840 n_83220_42840 Rseg
X216 n_83220_42840 n_83600_42840 Rseg
X217 n_83600_42840 n_84740_42840 Rseg
X218 n_84740_42840 n_85120_42840 Rseg
X219 n_85120_42840 n_85500_42840 Rseg
X220 n_85500_42840 n_85880_42840 Rseg
X221 n_85880_42840 n_86260_42840 Rseg
X222 n_86260_42840 n_87020_42840 Rseg
X223 n_87020_42840 n_87400_42840 Rseg
X224 n_87400_42840 n_87780_42840 Rseg
X225 n_87780_42840 n_88160_42840 Rseg
X226 n_88160_42840 n_88540_42840 Rseg
X227 n_88540_42840 n_88920_42840 Rseg
X228 n_88920_42840 n_89300_42840 Rseg
X229 n_89300_42840 n_90060_42840 Rseg
X230 n_90060_42840 n_90440_42840 Rseg
X231 n_90440_42840 n_90820_42840 Rseg
X232 n_90820_42840 n_91200_42840 Rseg
X233 n_91200_42840 n_91580_42840 Rseg
X234 n_91580_42840 n_91960_42840 Rseg
X235 n_91960_42840 n_92340_42840 Rseg
X236 n_92340_42840 n_92720_42840 Rseg
X237 n_92720_42840 n_93100_42840 Rseg
X238 n_93100_42840 n_93480_42840 Rseg
X239 n_40280_45640 n_40660_45640 Rseg
X240 n_40660_45640 n_41420_45640 Rseg
X241 n_41420_45640 n_41800_45640 Rseg
X242 n_41800_45640 n_42180_45640 Rseg
X243 n_42180_45640 n_42940_45640 Rseg
X244 n_42940_45640 n_43320_45640 Rseg
X245 n_43320_45640 n_43700_45640 Rseg
X246 n_43700_45640 n_44080_45640 Rseg
X247 n_44080_45640 n_44460_45640 Rseg
X248 n_44460_45640 n_44840_45640 Rseg
X249 n_44840_45640 n_45220_45640 Rseg
X250 n_45220_45640 n_45600_45640 Rseg
X251 n_45600_45640 n_46360_45640 Rseg
X252 n_46360_45640 n_46740_45640 Rseg
X253 n_46740_45640 n_47120_45640 Rseg
X254 n_47120_45640 n_47500_45640 Rseg
X255 n_47500_45640 n_47880_45640 Rseg
X256 n_47880_45640 n_48260_45640 Rseg
X257 n_48260_45640 n_48640_45640 Rseg
X258 n_48640_45640 n_49020_45640 Rseg
X259 n_49020_45640 n_49400_45640 Rseg
X260 n_49400_45640 n_49780_45640 Rseg
X261 n_49780_45640 n_50160_45640 Rseg
X262 n_50160_45640 n_50540_45640 Rseg
X263 n_50540_45640 n_50920_45640 Rseg
X264 n_50920_45640 n_51300_45640 Rseg
X265 n_51300_45640 n_51680_45640 Rseg
X266 n_51680_45640 n_52060_45640 Rseg
X267 n_52060_45640 n_52440_45640 Rseg
X268 n_52440_45640 n_52820_45640 Rseg
X269 n_52820_45640 n_53200_45640 Rseg
X270 n_53200_45640 n_53580_45640 Rseg
X271 n_53580_45640 n_53960_45640 Rseg
X272 n_53960_45640 n_54340_45640 Rseg
X273 n_54340_45640 n_54720_45640 Rseg
X274 n_54720_45640 n_55100_45640 Rseg
X275 n_55100_45640 n_55480_45640 Rseg
X276 n_55480_45640 n_55860_45640 Rseg
X277 n_55860_45640 n_56240_45640 Rseg
X278 n_56240_45640 n_56620_45640 Rseg
X279 n_56620_45640 n_57000_45640 Rseg
X280 n_57000_45640 n_57380_45640 Rseg
X281 n_57380_45640 n_57760_45640 Rseg
X282 n_57760_45640 n_58140_45640 Rseg
X283 n_58140_45640 n_58520_45640 Rseg
X284 n_58520_45640 n_58900_45640 Rseg
X285 n_58900_45640 n_59280_45640 Rseg
X286 n_59280_45640 n_59660_45640 Rseg
X287 n_59660_45640 n_60040_45640 Rseg
X288 n_60040_45640 n_60420_45640 Rseg
X289 n_60420_45640 n_60800_45640 Rseg
X290 n_60800_45640 n_61180_45640 Rseg
X291 n_61180_45640 n_61560_45640 Rseg
X292 n_61560_45640 n_61940_45640 Rseg
X293 n_61940_45640 n_62320_45640 Rseg
X294 n_62320_45640 n_63080_45640 Rseg
X295 n_63080_45640 n_63460_45640 Rseg
X296 n_63460_45640 n_63840_45640 Rseg
X297 n_63840_45640 n_64220_45640 Rseg
X298 n_64220_45640 n_64600_45640 Rseg
X299 n_64600_45640 n_64980_45640 Rseg
X300 n_64980_45640 n_65360_45640 Rseg
X301 n_65360_45640 n_65740_45640 Rseg
X302 n_65740_45640 n_66120_45640 Rseg
X303 n_66120_45640 n_66880_45640 Rseg
X304 n_66880_45640 n_67260_45640 Rseg
X305 n_67260_45640 n_68020_45640 Rseg
X306 n_68020_45640 n_68400_45640 Rseg
X307 n_68400_45640 n_68780_45640 Rseg
X308 n_68780_45640 n_69160_45640 Rseg
X309 n_69160_45640 n_69920_45640 Rseg
X310 n_69920_45640 n_70300_45640 Rseg
X311 n_70300_45640 n_71060_45640 Rseg
X312 n_71060_45640 n_71820_45640 Rseg
X313 n_71820_45640 n_72200_45640 Rseg
X314 n_72200_45640 n_72960_45640 Rseg
X315 n_72960_45640 n_73340_45640 Rseg
X316 n_73340_45640 n_73720_45640 Rseg
X317 n_73720_45640 n_74100_45640 Rseg
X318 n_74100_45640 n_74860_45640 Rseg
X319 n_74860_45640 n_75240_45640 Rseg
X320 n_75240_45640 n_76000_45640 Rseg
X321 n_76000_45640 n_76380_45640 Rseg
X322 n_76380_45640 n_76760_45640 Rseg
X323 n_76760_45640 n_77140_45640 Rseg
X324 n_77140_45640 n_77520_45640 Rseg
X325 n_77520_45640 n_77900_45640 Rseg
X326 n_77900_45640 n_78280_45640 Rseg
X327 n_78280_45640 n_78660_45640 Rseg
X328 n_78660_45640 n_79040_45640 Rseg
X329 n_79040_45640 n_80180_45640 Rseg
X330 n_80180_45640 n_80560_45640 Rseg
X331 n_80560_45640 n_80940_45640 Rseg
X332 n_80940_45640 n_81700_45640 Rseg
X333 n_81700_45640 n_82080_45640 Rseg
X334 n_82080_45640 n_83220_45640 Rseg
X335 n_83220_45640 n_83600_45640 Rseg
X336 n_83600_45640 n_84740_45640 Rseg
X337 n_84740_45640 n_85120_45640 Rseg
X338 n_85120_45640 n_85500_45640 Rseg
X339 n_85500_45640 n_85880_45640 Rseg
X340 n_85880_45640 n_86260_45640 Rseg
X341 n_86260_45640 n_87020_45640 Rseg
X342 n_87020_45640 n_87400_45640 Rseg
X343 n_87400_45640 n_87780_45640 Rseg
X344 n_87780_45640 n_88160_45640 Rseg
X345 n_88160_45640 n_88540_45640 Rseg
X346 n_88540_45640 n_88920_45640 Rseg
X347 n_88920_45640 n_89300_45640 Rseg
X348 n_89300_45640 n_90060_45640 Rseg
X349 n_90060_45640 n_90440_45640 Rseg
X350 n_90440_45640 n_90820_45640 Rseg
X351 n_90820_45640 n_91200_45640 Rseg
X352 n_91200_45640 n_91580_45640 Rseg
X353 n_91580_45640 n_91960_45640 Rseg
X354 n_91960_45640 n_92340_45640 Rseg
X355 n_92340_45640 n_92720_45640 Rseg
X356 n_92720_45640 n_93100_45640 Rseg
X357 n_93100_45640 n_93480_45640 Rseg
X358 n_40280_48440 n_40660_48440 Rseg
X359 n_40660_48440 n_41420_48440 Rseg
X360 n_41420_48440 n_41800_48440 Rseg
X361 n_41800_48440 n_42180_48440 Rseg
X362 n_42180_48440 n_42940_48440 Rseg
X363 n_42940_48440 n_43320_48440 Rseg
X364 n_43320_48440 n_43700_48440 Rseg
X365 n_43700_48440 n_44080_48440 Rseg
X366 n_44080_48440 n_44460_48440 Rseg
X367 n_44460_48440 n_44840_48440 Rseg
X368 n_44840_48440 n_45220_48440 Rseg
X369 n_45220_48440 n_45600_48440 Rseg
X370 n_45600_48440 n_46360_48440 Rseg
X371 n_46360_48440 n_46740_48440 Rseg
X372 n_46740_48440 n_47120_48440 Rseg
X373 n_47120_48440 n_47500_48440 Rseg
X374 n_47500_48440 n_47880_48440 Rseg
X375 n_47880_48440 n_48260_48440 Rseg
X376 n_48260_48440 n_48640_48440 Rseg
X377 n_48640_48440 n_49020_48440 Rseg
X378 n_49020_48440 n_49400_48440 Rseg
X379 n_49400_48440 n_49780_48440 Rseg
X380 n_49780_48440 n_50160_48440 Rseg
X381 n_50160_48440 n_50540_48440 Rseg
X382 n_50540_48440 n_50920_48440 Rseg
X383 n_50920_48440 n_51300_48440 Rseg
X384 n_51300_48440 n_51680_48440 Rseg
X385 n_51680_48440 n_52060_48440 Rseg
X386 n_52060_48440 n_52440_48440 Rseg
X387 n_52440_48440 n_52820_48440 Rseg
X388 n_52820_48440 n_53200_48440 Rseg
X389 n_53200_48440 n_53580_48440 Rseg
X390 n_53580_48440 n_53960_48440 Rseg
X391 n_53960_48440 n_54340_48440 Rseg
X392 n_54340_48440 n_54720_48440 Rseg
X393 n_54720_48440 n_55100_48440 Rseg
X394 n_55100_48440 n_55480_48440 Rseg
X395 n_55480_48440 n_55860_48440 Rseg
X396 n_55860_48440 n_56240_48440 Rseg
X397 n_56240_48440 n_56620_48440 Rseg
X398 n_56620_48440 n_57000_48440 Rseg
X399 n_57000_48440 n_57380_48440 Rseg
X400 n_57380_48440 n_57760_48440 Rseg
X401 n_57760_48440 n_58140_48440 Rseg
X402 n_58140_48440 n_58520_48440 Rseg
X403 n_58520_48440 n_58900_48440 Rseg
X404 n_58900_48440 n_59280_48440 Rseg
X405 n_59280_48440 n_59660_48440 Rseg
X406 n_59660_48440 n_60040_48440 Rseg
X407 n_60040_48440 n_60420_48440 Rseg
X408 n_60420_48440 n_60800_48440 Rseg
X409 n_60800_48440 n_61180_48440 Rseg
X410 n_61180_48440 n_61560_48440 Rseg
X411 n_61560_48440 n_61940_48440 Rseg
X412 n_61940_48440 n_62320_48440 Rseg
X413 n_62320_48440 n_63080_48440 Rseg
X414 n_63080_48440 n_63460_48440 Rseg
X415 n_63460_48440 n_63840_48440 Rseg
X416 n_63840_48440 n_64220_48440 Rseg
X417 n_64220_48440 n_64600_48440 Rseg
X418 n_64600_48440 n_64980_48440 Rseg
X419 n_64980_48440 n_65360_48440 Rseg
X420 n_65360_48440 n_65740_48440 Rseg
X421 n_65740_48440 n_66120_48440 Rseg
X422 n_66120_48440 n_66880_48440 Rseg
X423 n_66880_48440 n_67260_48440 Rseg
X424 n_67260_48440 n_68020_48440 Rseg
X425 n_68020_48440 n_68400_48440 Rseg
X426 n_68400_48440 n_68780_48440 Rseg
X427 n_68780_48440 n_69160_48440 Rseg
X428 n_69160_48440 n_69920_48440 Rseg
X429 n_69920_48440 n_70300_48440 Rseg
X430 n_70300_48440 n_71060_48440 Rseg
X431 n_71060_48440 n_71820_48440 Rseg
X432 n_71820_48440 n_72200_48440 Rseg
X433 n_72200_48440 n_72960_48440 Rseg
X434 n_72960_48440 n_73340_48440 Rseg
X435 n_73340_48440 n_73720_48440 Rseg
X436 n_73720_48440 n_74100_48440 Rseg
X437 n_74100_48440 n_74860_48440 Rseg
X438 n_74860_48440 n_75240_48440 Rseg
X439 n_75240_48440 n_76000_48440 Rseg
X440 n_76000_48440 n_76380_48440 Rseg
X441 n_76380_48440 n_76760_48440 Rseg
X442 n_76760_48440 n_77140_48440 Rseg
X443 n_77140_48440 n_77520_48440 Rseg
X444 n_77520_48440 n_77900_48440 Rseg
X445 n_77900_48440 n_78280_48440 Rseg
X446 n_78280_48440 n_78660_48440 Rseg
X447 n_78660_48440 n_79040_48440 Rseg
X448 n_79040_48440 n_80180_48440 Rseg
X449 n_80180_48440 n_80560_48440 Rseg
X450 n_80560_48440 n_80940_48440 Rseg
X451 n_80940_48440 n_81700_48440 Rseg
X452 n_81700_48440 n_82080_48440 Rseg
X453 n_82080_48440 n_83220_48440 Rseg
X454 n_83220_48440 n_83600_48440 Rseg
X455 n_83600_48440 n_84740_48440 Rseg
X456 n_84740_48440 n_85120_48440 Rseg
X457 n_85120_48440 n_85500_48440 Rseg
X458 n_85500_48440 n_85880_48440 Rseg
X459 n_85880_48440 n_86260_48440 Rseg
X460 n_86260_48440 n_87020_48440 Rseg
X461 n_87020_48440 n_87400_48440 Rseg
X462 n_87400_48440 n_87780_48440 Rseg
X463 n_87780_48440 n_88160_48440 Rseg
X464 n_88160_48440 n_88540_48440 Rseg
X465 n_88540_48440 n_88920_48440 Rseg
X466 n_88920_48440 n_89300_48440 Rseg
X467 n_89300_48440 n_90060_48440 Rseg
X468 n_90060_48440 n_90440_48440 Rseg
X469 n_90440_48440 n_90820_48440 Rseg
X470 n_90820_48440 n_91200_48440 Rseg
X471 n_91200_48440 n_91580_48440 Rseg
X472 n_91580_48440 n_91960_48440 Rseg
X473 n_91960_48440 n_92340_48440 Rseg
X474 n_92340_48440 n_92720_48440 Rseg
X475 n_92720_48440 n_93100_48440 Rseg
X476 n_93100_48440 n_93480_48440 Rseg
X477 n_40280_51240 n_40660_51240 Rseg
X478 n_40660_51240 n_41420_51240 Rseg
X479 n_41420_51240 n_41800_51240 Rseg
X480 n_41800_51240 n_42180_51240 Rseg
X481 n_42180_51240 n_42940_51240 Rseg
X482 n_42940_51240 n_43320_51240 Rseg
X483 n_43320_51240 n_43700_51240 Rseg
X484 n_43700_51240 n_44080_51240 Rseg
X485 n_44080_51240 n_44460_51240 Rseg
X486 n_44460_51240 n_44840_51240 Rseg
X487 n_44840_51240 n_45220_51240 Rseg
X488 n_45220_51240 n_45600_51240 Rseg
X489 n_45600_51240 n_46360_51240 Rseg
X490 n_46360_51240 n_46740_51240 Rseg
X491 n_46740_51240 n_47120_51240 Rseg
X492 n_47120_51240 n_47500_51240 Rseg
X493 n_47500_51240 n_47880_51240 Rseg
X494 n_47880_51240 n_48260_51240 Rseg
X495 n_48260_51240 n_48640_51240 Rseg
X496 n_48640_51240 n_49020_51240 Rseg
X497 n_49020_51240 n_49400_51240 Rseg
X498 n_49400_51240 n_49780_51240 Rseg
X499 n_49780_51240 n_50160_51240 Rseg
X500 n_50160_51240 n_50540_51240 Rseg
X501 n_50540_51240 n_50920_51240 Rseg
X502 n_50920_51240 n_51300_51240 Rseg
X503 n_51300_51240 n_51680_51240 Rseg
X504 n_51680_51240 n_52060_51240 Rseg
X505 n_52060_51240 n_52440_51240 Rseg
X506 n_52440_51240 n_52820_51240 Rseg
X507 n_52820_51240 n_53200_51240 Rseg
X508 n_53200_51240 n_53580_51240 Rseg
X509 n_53580_51240 n_53960_51240 Rseg
X510 n_53960_51240 n_54340_51240 Rseg
X511 n_54340_51240 n_54720_51240 Rseg
X512 n_54720_51240 n_55100_51240 Rseg
X513 n_55100_51240 n_55480_51240 Rseg
X514 n_55480_51240 n_55860_51240 Rseg
X515 n_55860_51240 n_56240_51240 Rseg
X516 n_56240_51240 n_56620_51240 Rseg
X517 n_56620_51240 n_57000_51240 Rseg
X518 n_57000_51240 n_57380_51240 Rseg
X519 n_57380_51240 n_57760_51240 Rseg
X520 n_57760_51240 n_58140_51240 Rseg
X521 n_58140_51240 n_58520_51240 Rseg
X522 n_58520_51240 n_58900_51240 Rseg
X523 n_58900_51240 n_59280_51240 Rseg
X524 n_59280_51240 n_59660_51240 Rseg
X525 n_59660_51240 n_60040_51240 Rseg
X526 n_60040_51240 n_60420_51240 Rseg
X527 n_60420_51240 n_60800_51240 Rseg
X528 n_60800_51240 n_61180_51240 Rseg
X529 n_61180_51240 n_61560_51240 Rseg
X530 n_61560_51240 n_61940_51240 Rseg
X531 n_61940_51240 n_62320_51240 Rseg
X532 n_62320_51240 n_63080_51240 Rseg
X533 n_63080_51240 n_63460_51240 Rseg
X534 n_63460_51240 n_63840_51240 Rseg
X535 n_63840_51240 n_64220_51240 Rseg
X536 n_64220_51240 n_64600_51240 Rseg
X537 n_64600_51240 n_64980_51240 Rseg
X538 n_64980_51240 n_65360_51240 Rseg
X539 n_65360_51240 n_65740_51240 Rseg
X540 n_65740_51240 n_66120_51240 Rseg
X541 n_66120_51240 n_66880_51240 Rseg
X542 n_66880_51240 n_67260_51240 Rseg
X543 n_67260_51240 n_68020_51240 Rseg
X544 n_68020_51240 n_68400_51240 Rseg
X545 n_68400_51240 n_68780_51240 Rseg
X546 n_68780_51240 n_69160_51240 Rseg
X547 n_69160_51240 n_69920_51240 Rseg
X548 n_69920_51240 n_70300_51240 Rseg
X549 n_70300_51240 n_71060_51240 Rseg
X550 n_71060_51240 n_71820_51240 Rseg
X551 n_71820_51240 n_72200_51240 Rseg
X552 n_72200_51240 n_72960_51240 Rseg
X553 n_72960_51240 n_73340_51240 Rseg
X554 n_73340_51240 n_73720_51240 Rseg
X555 n_73720_51240 n_74100_51240 Rseg
X556 n_74100_51240 n_74860_51240 Rseg
X557 n_74860_51240 n_75240_51240 Rseg
X558 n_75240_51240 n_76000_51240 Rseg
X559 n_76000_51240 n_76380_51240 Rseg
X560 n_76380_51240 n_76760_51240 Rseg
X561 n_76760_51240 n_77140_51240 Rseg
X562 n_77140_51240 n_77520_51240 Rseg
X563 n_77520_51240 n_77900_51240 Rseg
X564 n_77900_51240 n_78280_51240 Rseg
X565 n_78280_51240 n_78660_51240 Rseg
X566 n_78660_51240 n_79040_51240 Rseg
X567 n_79040_51240 n_80180_51240 Rseg
X568 n_80180_51240 n_80560_51240 Rseg
X569 n_80560_51240 n_80940_51240 Rseg
X570 n_80940_51240 n_81700_51240 Rseg
X571 n_81700_51240 n_82080_51240 Rseg
X572 n_82080_51240 n_83220_51240 Rseg
X573 n_83220_51240 n_83600_51240 Rseg
X574 n_83600_51240 n_84740_51240 Rseg
X575 n_84740_51240 n_85120_51240 Rseg
X576 n_85120_51240 n_85500_51240 Rseg
X577 n_85500_51240 n_85880_51240 Rseg
X578 n_85880_51240 n_86260_51240 Rseg
X579 n_86260_51240 n_87020_51240 Rseg
X580 n_87020_51240 n_87400_51240 Rseg
X581 n_87400_51240 n_87780_51240 Rseg
X582 n_87780_51240 n_88160_51240 Rseg
X583 n_88160_51240 n_88540_51240 Rseg
X584 n_88540_51240 n_88920_51240 Rseg
X585 n_88920_51240 n_89300_51240 Rseg
X586 n_89300_51240 n_90060_51240 Rseg
X587 n_90060_51240 n_90440_51240 Rseg
X588 n_90440_51240 n_90820_51240 Rseg
X589 n_90820_51240 n_91200_51240 Rseg
X590 n_91200_51240 n_91580_51240 Rseg
X591 n_91580_51240 n_91960_51240 Rseg
X592 n_91960_51240 n_92340_51240 Rseg
X593 n_92340_51240 n_92720_51240 Rseg
X594 n_92720_51240 n_93100_51240 Rseg
X595 n_93100_51240 n_93480_51240 Rseg
X596 n_40280_54040 n_40660_54040 Rseg
X597 n_40660_54040 n_41420_54040 Rseg
X598 n_41420_54040 n_41800_54040 Rseg
X599 n_41800_54040 n_42180_54040 Rseg
X600 n_42180_54040 n_42940_54040 Rseg
X601 n_42940_54040 n_43320_54040 Rseg
X602 n_43320_54040 n_43700_54040 Rseg
X603 n_43700_54040 n_44080_54040 Rseg
X604 n_44080_54040 n_44460_54040 Rseg
X605 n_44460_54040 n_44840_54040 Rseg
X606 n_44840_54040 n_45220_54040 Rseg
X607 n_45220_54040 n_45600_54040 Rseg
X608 n_45600_54040 n_46360_54040 Rseg
X609 n_46360_54040 n_46740_54040 Rseg
X610 n_46740_54040 n_47120_54040 Rseg
X611 n_47120_54040 n_47500_54040 Rseg
X612 n_47500_54040 n_47880_54040 Rseg
X613 n_47880_54040 n_48260_54040 Rseg
X614 n_48260_54040 n_48640_54040 Rseg
X615 n_48640_54040 n_49020_54040 Rseg
X616 n_49020_54040 n_49400_54040 Rseg
X617 n_49400_54040 n_49780_54040 Rseg
X618 n_49780_54040 n_50160_54040 Rseg
X619 n_50160_54040 n_50540_54040 Rseg
X620 n_50540_54040 n_50920_54040 Rseg
X621 n_50920_54040 n_51300_54040 Rseg
X622 n_51300_54040 n_51680_54040 Rseg
X623 n_51680_54040 n_52060_54040 Rseg
X624 n_52060_54040 n_52440_54040 Rseg
X625 n_52440_54040 n_52820_54040 Rseg
X626 n_52820_54040 n_53200_54040 Rseg
X627 n_53200_54040 n_53580_54040 Rseg
X628 n_53580_54040 n_53960_54040 Rseg
X629 n_53960_54040 n_54340_54040 Rseg
X630 n_54340_54040 n_54720_54040 Rseg
X631 n_54720_54040 n_55100_54040 Rseg
X632 n_55100_54040 n_55480_54040 Rseg
X633 n_55480_54040 n_55860_54040 Rseg
X634 n_55860_54040 n_56240_54040 Rseg
X635 n_56240_54040 n_56620_54040 Rseg
X636 n_56620_54040 n_57000_54040 Rseg
X637 n_57000_54040 n_57380_54040 Rseg
X638 n_57380_54040 n_57760_54040 Rseg
X639 n_57760_54040 n_58140_54040 Rseg
X640 n_58140_54040 n_58520_54040 Rseg
X641 n_58520_54040 n_58900_54040 Rseg
X642 n_58900_54040 n_59280_54040 Rseg
X643 n_59280_54040 n_59660_54040 Rseg
X644 n_59660_54040 n_60040_54040 Rseg
X645 n_60040_54040 n_60420_54040 Rseg
X646 n_60420_54040 n_60800_54040 Rseg
X647 n_60800_54040 n_61180_54040 Rseg
X648 n_61180_54040 n_61560_54040 Rseg
X649 n_61560_54040 n_61940_54040 Rseg
X650 n_61940_54040 n_62320_54040 Rseg
X651 n_62320_54040 n_63080_54040 Rseg
X652 n_63080_54040 n_63460_54040 Rseg
X653 n_63460_54040 n_63840_54040 Rseg
X654 n_63840_54040 n_64220_54040 Rseg
X655 n_64220_54040 n_64600_54040 Rseg
X656 n_64600_54040 n_64980_54040 Rseg
X657 n_64980_54040 n_65360_54040 Rseg
X658 n_65360_54040 n_65740_54040 Rseg
X659 n_65740_54040 n_66120_54040 Rseg
X660 n_66120_54040 n_66880_54040 Rseg
X661 n_66880_54040 n_67260_54040 Rseg
X662 n_67260_54040 n_68020_54040 Rseg
X663 n_68020_54040 n_68400_54040 Rseg
X664 n_68400_54040 n_68780_54040 Rseg
X665 n_68780_54040 n_69160_54040 Rseg
X666 n_69160_54040 n_69920_54040 Rseg
X667 n_69920_54040 n_70300_54040 Rseg
X668 n_70300_54040 n_71060_54040 Rseg
X669 n_71060_54040 n_71820_54040 Rseg
X670 n_71820_54040 n_72200_54040 Rseg
X671 n_72200_54040 n_72960_54040 Rseg
X672 n_72960_54040 n_73340_54040 Rseg
X673 n_73340_54040 n_73720_54040 Rseg
X674 n_73720_54040 n_74100_54040 Rseg
X675 n_74100_54040 n_74860_54040 Rseg
X676 n_74860_54040 n_75240_54040 Rseg
X677 n_75240_54040 n_76000_54040 Rseg
X678 n_76000_54040 n_76380_54040 Rseg
X679 n_76380_54040 n_76760_54040 Rseg
X680 n_76760_54040 n_77140_54040 Rseg
X681 n_77140_54040 n_77520_54040 Rseg
X682 n_77520_54040 n_77900_54040 Rseg
X683 n_77900_54040 n_78280_54040 Rseg
X684 n_78280_54040 n_78660_54040 Rseg
X685 n_78660_54040 n_79040_54040 Rseg
X686 n_79040_54040 n_80180_54040 Rseg
X687 n_80180_54040 n_80560_54040 Rseg
X688 n_80560_54040 n_80940_54040 Rseg
X689 n_80940_54040 n_81700_54040 Rseg
X690 n_81700_54040 n_82080_54040 Rseg
X691 n_82080_54040 n_83220_54040 Rseg
X692 n_83220_54040 n_83600_54040 Rseg
X693 n_83600_54040 n_84740_54040 Rseg
X694 n_84740_54040 n_85120_54040 Rseg
X695 n_85120_54040 n_85500_54040 Rseg
X696 n_85500_54040 n_85880_54040 Rseg
X697 n_85880_54040 n_86260_54040 Rseg
X698 n_86260_54040 n_87020_54040 Rseg
X699 n_87020_54040 n_87400_54040 Rseg
X700 n_87400_54040 n_87780_54040 Rseg
X701 n_87780_54040 n_88160_54040 Rseg
X702 n_88160_54040 n_88540_54040 Rseg
X703 n_88540_54040 n_88920_54040 Rseg
X704 n_88920_54040 n_89300_54040 Rseg
X705 n_89300_54040 n_90060_54040 Rseg
X706 n_90060_54040 n_90440_54040 Rseg
X707 n_90440_54040 n_90820_54040 Rseg
X708 n_90820_54040 n_91200_54040 Rseg
X709 n_91200_54040 n_91580_54040 Rseg
X710 n_91580_54040 n_91960_54040 Rseg
X711 n_91960_54040 n_92340_54040 Rseg
X712 n_92340_54040 n_92720_54040 Rseg
X713 n_92720_54040 n_93100_54040 Rseg
X714 n_93100_54040 n_93480_54040 Rseg
X715 n_40280_56840 n_40660_56840 Rseg
X716 n_40660_56840 n_41420_56840 Rseg
X717 n_41420_56840 n_41800_56840 Rseg
X718 n_41800_56840 n_42180_56840 Rseg
X719 n_42180_56840 n_42940_56840 Rseg
X720 n_42940_56840 n_43320_56840 Rseg
X721 n_43320_56840 n_43700_56840 Rseg
X722 n_43700_56840 n_44080_56840 Rseg
X723 n_44080_56840 n_44460_56840 Rseg
X724 n_44460_56840 n_44840_56840 Rseg
X725 n_44840_56840 n_45220_56840 Rseg
X726 n_45220_56840 n_45600_56840 Rseg
X727 n_45600_56840 n_46360_56840 Rseg
X728 n_46360_56840 n_46740_56840 Rseg
X729 n_46740_56840 n_47120_56840 Rseg
X730 n_47120_56840 n_47500_56840 Rseg
X731 n_47500_56840 n_47880_56840 Rseg
X732 n_47880_56840 n_48260_56840 Rseg
X733 n_48260_56840 n_48640_56840 Rseg
X734 n_48640_56840 n_49020_56840 Rseg
X735 n_49020_56840 n_49400_56840 Rseg
X736 n_49400_56840 n_49780_56840 Rseg
X737 n_49780_56840 n_50160_56840 Rseg
X738 n_50160_56840 n_50540_56840 Rseg
X739 n_50540_56840 n_50920_56840 Rseg
X740 n_50920_56840 n_51300_56840 Rseg
X741 n_51300_56840 n_51680_56840 Rseg
X742 n_51680_56840 n_52060_56840 Rseg
X743 n_52060_56840 n_52440_56840 Rseg
X744 n_52440_56840 n_52820_56840 Rseg
X745 n_52820_56840 n_53200_56840 Rseg
X746 n_53200_56840 n_53580_56840 Rseg
X747 n_53580_56840 n_53960_56840 Rseg
X748 n_53960_56840 n_54340_56840 Rseg
X749 n_54340_56840 n_54720_56840 Rseg
X750 n_54720_56840 n_55100_56840 Rseg
X751 n_55100_56840 n_55480_56840 Rseg
X752 n_55480_56840 n_55860_56840 Rseg
X753 n_55860_56840 n_56240_56840 Rseg
X754 n_56240_56840 n_56620_56840 Rseg
X755 n_56620_56840 n_57000_56840 Rseg
X756 n_57000_56840 n_57380_56840 Rseg
X757 n_57380_56840 n_57760_56840 Rseg
X758 n_57760_56840 n_58140_56840 Rseg
X759 n_58140_56840 n_58520_56840 Rseg
X760 n_58520_56840 n_58900_56840 Rseg
X761 n_58900_56840 n_59280_56840 Rseg
X762 n_59280_56840 n_59660_56840 Rseg
X763 n_59660_56840 n_60040_56840 Rseg
X764 n_60040_56840 n_60420_56840 Rseg
X765 n_60420_56840 n_60800_56840 Rseg
X766 n_60800_56840 n_61180_56840 Rseg
X767 n_61180_56840 n_61560_56840 Rseg
X768 n_61560_56840 n_61940_56840 Rseg
X769 n_61940_56840 n_62320_56840 Rseg
X770 n_62320_56840 n_63080_56840 Rseg
X771 n_63080_56840 n_63460_56840 Rseg
X772 n_63460_56840 n_63840_56840 Rseg
X773 n_63840_56840 n_64220_56840 Rseg
X774 n_64220_56840 n_64600_56840 Rseg
X775 n_64600_56840 n_64980_56840 Rseg
X776 n_64980_56840 n_65360_56840 Rseg
X777 n_65360_56840 n_65740_56840 Rseg
X778 n_65740_56840 n_66120_56840 Rseg
X779 n_66120_56840 n_66880_56840 Rseg
X780 n_66880_56840 n_67260_56840 Rseg
X781 n_67260_56840 n_68020_56840 Rseg
X782 n_68020_56840 n_68400_56840 Rseg
X783 n_68400_56840 n_68780_56840 Rseg
X784 n_68780_56840 n_69160_56840 Rseg
X785 n_69160_56840 n_69920_56840 Rseg
X786 n_69920_56840 n_70300_56840 Rseg
X787 n_70300_56840 n_71060_56840 Rseg